Circuit: * Z:\home\gilou\git_repos\datalogger-project\Hardware\digital\LTspice\power_switch\power_switch.asc

Limiting rise time of source v2 to 0.1
Limiting fall time of source v2 to 0.1
WARNING: Less than two connections to node N002.  This node is used by M2.
Direct Newton iteration failed to find .op point.  (Use ".option noopiter" to skip.)
Starting Gmin stepping
Gmin = 10
Gmin = 1.07374
Gmin = 0.115292
Gmin = 0.0123794
Gmin = 0.00132923
Gmin = 0.000142725
Gmin = 1.5325e-005
Gmin = 1.6455e-006
Gmin = 1.76685e-007
Gmin = 1.89714e-008
Gmin = 2.03704e-009
vernier = 0.5
vernier = 0.666667
Gmin = 6.64404e-010
vernier = 0.888888
Gmin = 1.07583e-010
vernier = 1
vernier = 0.5
vernier = 0.25
vernier = 0.125
vernier = 0.0625
Gmin = 1.02718e-010
vernier = 0.03125
vernier = 0.015625
vernier = 0.0078125
vernier = 0.00390625
vernier = 0.00195313
Gmin = 1.02718e-010
vernier = 0.000976563
vernier = 0.000488281
vernier = 0.000651042
Gmin = 1.02639e-010
vernier = 0.000868055
Gmin = 1.02444e-010
vernier = 0.00115741
vernier = 0.00154321
Gmin = 1.02126e-010
vernier = 0.00205761
vernier = 0.00274348
Gmin = 1.01624e-010
vernier = 0.00365797
Gmin = 1.00814e-010
vernier = 0.0048773
vernier = 0.00650306
Gmin = 9.95024e-011
vernier = 0.00867074
vernier = 0.011561
Gmin = 9.74588e-011
vernier = 0.0154146
Gmin = 9.42328e-011
vernier = 0.0205529
vernier = 0.0274038
Gmin = 8.91829e-011
vernier = 0.0365384
vernier = 0.0487178
Gmin = 8.17398e-011
vernier = 0.0649571
Gmin = 7.09849e-011
vernier = 0.0866095
vernier = 0.115479
Gmin = 5.63988e-011
vernier = 0.153972
vernier = 0.205296
Gmin = 3.92673e-011
vernier = 0.273728
Gmin = 2.1959e-011
vernier = 0.364971
vernier = 0.486628
Gmin = 8.62497e-012
vernier = 0.648837
vernier = 0.865116
Gmin = 2.0391e-012
vernier = 1
Gmin = 2.51028e-013
Gmin = 0
Gmin stepping succeeded in finding the operating point.


Date: Sat May 13 19:31:34 2017
Total elapsed time: 0.407 seconds.

tnom = 27
temp = 27
method = modified trap
totiter = 8838
traniter = 6761
tranpoints = 2287
accept = 1943
rejected = 344
matrix size = 29
fillins = 6
solver = Normal
Matrix Compiler1: 1.74 KB object code size  3.3/1.5/[1.2]
Matrix Compiler2: off  [0.9]/0.9/1.0

